LAMMPS (21 Jul 2020)
# Initialization

units		  metal
dimension 	      3
boundary	  f f f
atom_style	 atomic

# Atom Definition

read_data atom_definition.txt
  orthogonal box = (-0.0000000 -0.0000000 -0.0000000) to (200.00000 200.00000 200.00000)
  reading atoms ...
  923 atoms

# Settings

pair_style eam/alloy
pair_coeff	* * CuAgAu_Zhou04.eam.alloy Cu Ag
Reading eam/alloy potential file CuAgAu_Zhou04.eam.alloy with DATE: 2018-03-30

velocity         all create 400 12345 mom yes rot yes dist gaussian
timestep         0.002
fix              1 all nvt temp 400 400 $(100.0*dt) drag 0.0 tchain 1 # from 600 600 -> 400 400 (mainting temp, initial temp)
fix              1 all nvt temp 400 400 0.2000000000000000111 drag 0.0 tchain 1
fix              2 all recenter INIT INIT INIT

dump myDump all custom 200 trajectory.txt id type x y z
dump_modify myDump sort id

thermo 200

# Run a simulation

run              500000
  update every 1 steps, delay 10 steps, check yes
Step Temp E_pair E_mol TotEng Press
0          400   -2375.1558            0   -2327.4846   -112.37821
Averages over the last 1251 of 2501 rows, steps 250000 to 500000:
Temp E_pair E_mol TotEng Press
399.56 -2665.51 0 -2617.89 0.0201378
Loop time of 1235.56 on 1 procs for 500000 steps with 923 atoms

print "All done!"
All done!
